%nproc=16
%chk=sub-_opt
#M062X/6-311G** scrf=smd opt

remark line goes here

-3   1
 P    22.394000    42.160000    16.893000
 O    21.667000    41.018000    16.124000
 O    23.015000    41.628000    18.241000
 O    21.573000    43.407000    17.067000
 O    23.753000    42.570000    15.929000
 C    23.311000    42.835000    14.513000
 H    22.789000    43.650000    14.447000
 H    22.799000    42.094000    14.152000
 C    24.681000    42.976000    13.815000
 O    25.335000    43.954000    14.051000
 C    25.185000    41.871000    13.011000
 O    26.031000    42.093000    11.946000
 H    25.656000    42.569000    11.394000
 H    25.641000    41.264000    13.615000



