%nproc=8
%chk=sub-_esp
#HF/6-31G* scrf=smd SCF=tight Test Pop=MK iop(6/33=2) iop(6/42=6)
# iop(6/50=1)

RESP charges

-3   1
 P    -2.011391   -0.038630    0.064628
 O    -2.185902   -1.554782   -0.051506
 O    -2.685308    0.579679    1.285869
 O    -2.283739    0.702418   -1.246362
 O    -0.394213    0.204762    0.400860
 C     0.544890   -0.261528   -0.571430
 H     0.290741    0.177876   -1.545034
 H     0.486847   -1.352997   -0.654662
 C     1.930523    0.176042   -0.178253
 O     2.175707    1.461419   -0.063463
 C     2.872028   -0.772717    0.018134
 O     4.181295   -0.374376    0.338668
 H     4.112242    0.592575    0.356274
 H     2.733671   -1.841759   -0.049232

g09.gesp

g09.gesp


