%chk=3ov-h2_resp
#HF/6-31G* scrf=smd SCF=tight Test Pop=MK iop(6/33=2) iop(6/42=6)
# iop(6/50=1)

calc RESP charges

-1   1
 O     2.286461    0.851499    0.428024
 C     1.456201    0.031324    0.009077
 O     1.389996   -0.376297   -1.172714
 C     0.476173   -0.572400    1.014246
 C    -0.975909   -0.742689    0.545123
 O    -1.040348   -1.478131   -0.664597
 C    -1.779173    0.557935    0.447227
 H     0.866689   -1.559398    1.253794
 H     0.493342    0.009267    1.927725
 H    -1.823343    1.001322    1.439055
 H    -2.797946    0.282110    0.186778
 C    -1.277427    1.599654   -0.552475
 H    -1.980285    2.425431   -0.611347
 H    -1.177793    1.181585   -1.548628
 H    -0.317849    2.013489   -0.261407
 H    -1.474329   -1.353742    1.289191
 H    -0.276548   -1.219572   -1.180058

g09.gesp

g09.gesp


