%chk=tyr_gesp
#HF/6-31G* scrf=smd SCF=tight Test Pop=MK iop(6/33=2) iop(6/42=6)
# iop(6/50=1)

calc RESP charges

0   1
    C   -3.176418   -0.015081    0.787256     
    C   -2.404042    0.037118   -0.534459     
    H   -2.699000   -0.806015   -1.151647     
    H   -2.685146    0.935230   -1.075497     
    C   -0.902184    0.017313   -0.341499     
    C   -0.204847   -1.184339   -0.242238     
    H   -0.737494   -2.115398   -0.332077     
    C    1.163258   -1.214883   -0.034639     
    H    1.690241   -2.149193    0.037111     
    C    1.866063   -0.024584    0.078421     
    O    3.212587   -0.096944    0.281626     
    H    3.582865    0.777156    0.343150     
    C   -0.173511    1.194811   -0.226946     
    H   -0.678553    2.142165   -0.304081     
    C    1.198290    1.184431   -0.018962     
    H    1.745218    2.107584    0.063278     
    H   -2.929251    0.834961    1.416323     
    H   -2.941500   -0.919504    1.340582     
    H   -4.247732   -0.000159    0.608248     

g09.gesp

g09.gesp


