%nproc=16
%chk=3ov
#HF/6-31G* scrf=smd opt

remark line goes here

-1   1
    O  -22.7430000000      -11.3090000000      -25.2210000000     
    C  -22.1450000000      -10.3450000000      -24.6570000000     
    O  -22.0390000000      -10.1650000000      -23.3960000000     
    C  -21.3380000000       -9.3460000000      -25.5240000000     
    C  -21.8760000000       -8.5880000000      -26.6630000000     
    O  -22.2970000000       -7.3730000000      -26.4800000000     
    C  -21.9900000000       -9.0980000000      -28.0650000000     
    H  -20.8120000000       -8.6840000000      -24.8210000000     
    H  -20.5520000000       -9.9480000000      -26.0040000000     
    H  -21.0430000000       -9.1510000000      -28.6180000000     
    H  -22.6450000000       -8.4740000000      -28.6800000000     
    C  -22.5880000000      -10.5020000000      -27.9860000000     
    H  -22.7320000000      -10.9060000000      -28.9930000000     
    H  -23.5620000000      -10.4960000000      -27.4860000000     
    H  -21.9290000000      -11.1860000000      -27.4420000000     



