%chk=tyr-_gesp
#HF/6-31G* scrf=smd SCF=tight Test Pop=MK iop(6/33=2) iop(6/42=6)
# iop(6/50=1)

calc RESP charges

-1   1
    C   -3.149714    0.000100    0.773539     
    C   -2.358144   -0.000038   -0.538548     
    H   -2.648097   -0.870302   -1.121614     
    H   -2.647899    0.870246   -1.121682     
    C   -0.856226   -0.000156   -0.340471     
    C   -0.129922   -1.184192   -0.228920     
    H   -0.647503   -2.127032   -0.314287     
    C    1.236926   -1.195204   -0.016551     
    H    1.760677   -2.134524    0.059542     
    C    1.988524   -0.000056    0.101987     
    O    3.261386    0.000159    0.299631     
    C   -0.129932    1.184114   -0.228999     
    H   -0.647673    2.126860   -0.314413     
    C    1.236739    1.195199   -0.016636     
    H    1.760593    2.134463    0.059399     
    H   -2.914807    0.877613    1.369397     
    H   -2.915519   -0.877756    1.369175     
    H   -4.220356    0.000561    0.585024     

g09.gesp

g09.gesp


