%nproc=16
%chk=nad
#HF/6-31G* scrf=smd opt

remark line goes here

-1   1
 C    -6.478506     2.983732    -0.991747
 H    -6.198319     4.018929    -0.991608
 C    -7.526117     2.537226    -1.657372
 H    -8.115207     3.239338    -2.219349
 C    -7.944386     1.090916    -1.656642
 H    -8.085930     0.744139    -2.676933
 C    -6.898110     0.245702    -0.957501
 C    -7.116456    -1.217363    -1.000712
 O    -8.162568    -1.654947    -1.470640
 N    -6.195407    -2.063317    -0.520131
 H    -5.270082    -1.812382    -0.247107
 H    -6.384299    -3.037157    -0.621034
 C    -5.867241     0.794428    -0.308923
 H    -5.135341     0.195259     0.190339
 N    -5.658491     2.152343    -0.209885
 C    -4.394441     2.657589     0.246626
 H    -4.453202     3.735749     0.192822
 C    -3.971334     2.264424     1.661385
 H    -4.182735     1.219955     1.842261
 O    -4.561634     3.060258     2.653472
 H    -5.451581     2.758653     2.797101
 C    -2.454479     2.450663     1.612208
 H    -1.950989     1.781380     2.291752
 O    -2.043392     3.744678     1.987310
 H    -2.423932     4.394260     1.405793
 C    -2.118806     2.135034     0.142608
 H    -1.448802     2.895602    -0.239147
 O    -3.346376     2.190392    -0.574278
 C    -1.474154     0.788864    -0.095729
 H    -1.335423     0.637019    -1.156495
 H    -0.511365     0.751233     0.397902
 O    -2.323005    -0.218535     0.428635
 P    -2.138780    -1.771023     0.091150
 O    -1.757995    -1.963950    -1.327684
 O    -3.329894    -2.459113     0.642450
 O    -0.853000    -2.088086     1.032586
 P     0.165779    -3.347479     0.988758
 O     0.956746    -3.269912     2.239749
 O    -0.570627    -4.583350     0.639222
 O     1.091066    -2.997949    -0.274462
 C     1.839383    -1.796288    -0.347725
 H     1.957021    -1.350317     0.630365
 H     1.316352    -1.100147    -0.988341
 C     3.194321    -2.122282    -0.949616
 H     3.055804    -2.661839    -1.876671
 O     3.849328    -0.885192    -1.227554
 C     4.124158    -2.899146    -0.012962
 H     3.579183    -3.443163     0.741203
 O     4.918037    -3.853779    -0.681903
 H     5.259627    -3.500843    -1.497297
 C     4.981751    -1.786568     0.590465
 H     4.447786    -1.322122     1.407259
 O     6.220673    -2.206174     1.084807
 H     6.558705    -2.880763     0.503567
 C     5.090775    -0.804797    -0.575211
 H     5.889854    -1.098233    -1.239328
 N     5.345611     0.564004    -0.204975
 C     4.558028     1.359937     0.586272
 H     3.660035     0.981732     1.027482
 N     4.997820     2.557208     0.723885
 C     6.161734     2.578953    -0.027664
 C     7.107650     3.575232    -0.288884
 N     6.996801     4.829087     0.185546
 H     6.386526     4.989782     0.957255
 H     7.810728     5.404264     0.144889
 N     8.141525     3.275376    -1.074712
 C     8.223932     2.048543    -1.574057
 H     9.076537     1.865347    -2.200887
 N     7.406476     1.035004    -1.401062
 C     6.382087     1.353878    -0.612135


