%chk=nad_gesp
#HF/6-31G* scrf=smd SCF=tight Test Pop=MK iop(6/33=2) iop(6/42=6)
# iop(6/50=1)

calc RESP charges

-1   1
 C     -6.817120    2.736289   -0.017356
 H     -6.727573    3.738852    0.347829
 C     -8.029880    2.154853   -0.278853
 H     -8.930434    2.710634   -0.111745
 C     -8.053627    0.863673   -0.773026
 H     -8.986880    0.390200   -1.005852
 C     -6.861995    0.169770   -0.966970
 C     -6.927758   -1.218751   -1.536142
 O     -7.899615   -1.536219   -2.197861
 N     -5.920102   -2.047145   -1.295482
 H     -5.163001   -1.864578   -0.666567
 H     -5.980116   -2.966338   -1.680630
 C     -5.679863    0.806382   -0.676262
 H     -4.719153    0.357325   -0.808617
 N     -5.676286    2.065265   -0.221581
 C     -4.394865    2.727392    0.138988
 H     -4.588199    3.787529    0.090165
 C     -3.873578    2.318346    1.518385
 H     -4.077130    1.268142    1.676907
 O     -4.395297    3.093165    2.556772
 H     -5.255085    2.759845    2.790040
 C     -2.364095    2.504922    1.354023
 H     -1.818154    1.819597    1.982334
 O     -1.922125    3.789015    1.718597
 H     -2.335080    4.454366    1.177946
 C     -2.142804    2.206452   -0.137734
 H     -1.480614    2.948528   -0.561094
 O     -3.424523    2.344518   -0.768794
 C     -1.579755    0.841288   -0.454805
 H     -1.528635    0.709925   -1.526054
 H     -0.583354    0.762845   -0.039102
 O     -2.425321   -0.144064    0.110126
 P     -2.176832   -1.713180   -0.093727
 O     -1.662983   -1.990850   -1.454977
 O     -3.402964   -2.390143    0.392783
 O     -0.981376   -1.925471    0.981559
 P      0.023767   -3.184495    1.173291
 O      0.697329   -2.961765    2.474214
 O     -0.694434   -4.449684    0.900447
 O      1.060443   -2.983048   -0.033472
 C      1.830903   -1.801475   -0.171608
 H      1.949997   -1.303713    0.780960
 H      1.328061   -1.133090   -0.856360
 C      3.181970   -2.190415   -0.743583
 H      3.037268   -2.783914   -1.636005
 O      3.862951   -0.986725   -1.094287
 C      4.092627   -2.922902    0.244506
 H      3.534178   -3.423847    1.018902
 O      4.889327   -3.913590   -0.366148
 H      5.236056   -3.604091   -1.196952
 C      4.951652   -1.786209    0.799438
 H      4.410041   -1.272709    1.580691
 O      6.177821   -2.189684    1.336788
 H      6.521479   -2.893281    0.794460
 C      5.090937   -0.875210   -0.420095
 H      5.900872   -1.214578   -1.048039
 N      5.350195    0.512207   -0.131612
 C      4.564572    1.360129    0.607082
 H      3.678056    1.008240    1.091482
 N      4.992870    2.568696    0.644004
 C      6.143396    2.544417   -0.127975
 C      7.070134    3.528574   -0.486017
 N      6.949849    4.814428   -0.110584
 H      6.350647    5.028260    0.656939
 H      7.753673    5.395940   -0.213600
 N      8.092840    3.180262   -1.266513
 C      8.182444    1.918930   -1.669280
 H      9.025445    1.697054   -2.296599
 N      7.381922    0.912552   -1.401189
 C      6.368491    1.280297   -0.619411

g09.gesp

g09.gesp


