%nproc=8
%chk=sub_esp
#HF/6-31G* scrf=smd SCF=tight Test Pop=MK iop(6/33=2) iop(6/42=6)
# iop(6/50=1)

RESP charges

-2   1
 P    -2.086366   -0.034102   -0.018098
 O    -2.272358   -0.800737    1.289495
 O    -2.876914    1.262195   -0.117230
 O    -2.139638   -0.916213   -1.261772
 O    -0.500543    0.540091    0.037379
 C     0.498598   -0.441224    0.137393
 H     0.405324   -1.200300   -0.650762
 H     0.456288   -0.967801    1.101044
 C     1.861537    0.180179    0.027467
 O     2.049670    1.377200    0.010964 
 C     3.026062   -0.775288   -0.086494
 O     4.259995   -0.101446    0.027126
 H     4.079409    0.827218   -0.174673
 H     2.946237   -1.536782    0.694008
 H     2.929350   -1.281536   -1.056039

g09.gesp

g09.gesp

